!-Generator IDFEditor 1.50
!-Option SortedOrder

!-NOTE: All comments with '!-' are ignored by the IDFEditor and are generated automatically.
!-      Use '!' comments if they need to be retained when using the IDFEditor.


!-   ===========  ALL OBJECTS IN CLASS: VERSION ===========

! DOE Commercial Reference Building
! Medium office, new construction 90.1-2004
! Version 1.3_5.0
! EnergyPlus Version 5.0
! ASHRAE Standards 90.1-2004 and 62-1999
!
! Description:  Three story, 15 zone office building.
! Form:         Area = 4,982 m2 (53,628 ft2); Number of Stories = 3; Shape = rectangle, Aspect ratio = 1.5
! Envelope:     Envelope thermal properties vary with climate according to ASHRAE Standard 90.1-2004.
!               Opaque constructions: steel frame walls; built-up flat roof (insulation above deck); slab-on-grade floor
!               Windows: window-to-wall ratio = 33.0%, equal distribution of windows
!               Infiltration in perimeter zones only
!                            = 0.4 cfm/ft2 above grade wall area at 0.3 in wc (75 Pa) adjusted to 0.016 in wc (4 Pa).
!                              25% of full value when ventilation system on.
!
! HVAC:         Packaged MZVAV with plenum zones, gas furnace, electric reheat
!               Economizer per 90.1-2004
!
! Int. gains:   lights = 10.76 W/m2 (1.0 W/ft2) (building area method);
!               elec. plug loads = 10.76 W/m2 (1.0 W/ft2)
!               gas plug load = 0 W/m2 (0 W/ft2)
!               people = 268 total; 5.38/100 m2 (5.0/1000 ft2)
!               elevators = 2 @ 20 HP each, 91% motor efficiency
!
! Detached Shading:               None
! Daylight:                       None
! Natural Ventilation:            None
! Zonal Equipment:                None
! Air Primary Loops:              VAV with electric reheat
! Plant Loops:                    SHWSys1
! System Equipment Autosize:      Yes
! Purchased Cooling:              None
! Purchased Heating:              None
! Coils:                          Coil:Cooling:DX:TwoSpeed; Coil:Heating:Gas; Coil:Heating:Electric
! Pumps:                          Yes
! Boilers:                        None
! Chillers:                       None
!***** NOTICE *****
!***** The Reference Buildings were prepared as an account of work sponsored by an *****
!***** agency of the United States government. Neither the United States *****
!***** government nor any agency thereof, nor any of their employees, makes *****
!***** any warranty, express or implied, or assumes any legal liability or *****
!***** responsibility for the accuracy, completeness, or usefulness of any *****
!***** information, apparatus, product, or process disclosed, or represents *****
!***** that its use would not infringe privately owned rights. Reference *****
!***** herein to any specific commercial product, process, or service by *****
!***** trade name, trademark, manufacturer, or otherwise does not necessarily *****
!***** constitute or imply its endorsement, recommendation, or favoring by *****
!***** the United States government or any agency thereof. The views and *****
!***** opinions of authors expressed herein do not necessarily state or *****
!***** reflect those of the United States government or any agency thereof. *****
!***** Access to and use of the Reference Buildings imposes the following obligations *****
!***** on the user. The user agrees to credit DOE, NREL, PNNL, and LBNL in *****
!***** any publication(s) that that result from the use of Reference Buildings. *****
!***** However, the names of DOE/NREL/PNNL/LBNL may not be used in any *****
!***** advertising or publicity that implies endorsement or promotion of any *****
!***** products, services or commercial entities. *****
! Reference citation for the Commercial Reference Buildings:
! Deru, M.; Field, K.; Studer, D.; Benne, K.; Griffith, B.; Torcellini, P;
! Halverson, M.; Winiarski, D.; Liu, B.; Rosenberg, M.; Huang, J.;
! Yazdanian, M.; Crawley, D. (2010).
! U.S. Department of Energy Commercial Reference Building Models of the National Building Stock.
! Washington, DC: U.S. Department of Energy, Energy Efficiency and
! Renewable Energy, Office of Building Technologies.
! ***GENERAL SIMULATION PARAMETERS***
! Number of Zones: 18
Version,
    9.2;                     !- Version Identifier


!-   ===========  ALL OBJECTS IN CLASS: SIMULATIONCONTROL ===========

SimulationControl,
    No,                      !- Do Zone Sizing Calculation
    No,                      !- Do System Sizing Calculation
    No,                      !- Do Plant Sizing Calculation
    NO,                      !- Run Simulation for Sizing Periods
    YES;                     !- Run Simulation for Weather File Run Periods


!-   ===========  ALL OBJECTS IN CLASS: BUILDING ===========

Building,
    Ref Bldg Medium Office New2004_v1.3_5.0,  !- Name
    0.0000,                  !- North Axis {deg}
    City,                    !- Terrain
    0.0400,                  !- Loads Convergence Tolerance Value
    0.2000,                  !- Temperature Convergence Tolerance Value {deltaC}
    FullInteriorAndExterior, !- Solar Distribution
    25,                      !- Maximum Number of Warmup Days
    6;                       !- Minimum Number of Warmup Days


!-   ===========  ALL OBJECTS IN CLASS: SURFACECONVECTIONALGORITHM:INSIDE ===========

! ***MISC SIMULATION PARAMETERS***
SurfaceConvectionAlgorithm:Inside,
    TARP;                    !- Algorithm


!-   ===========  ALL OBJECTS IN CLASS: SURFACECONVECTIONALGORITHM:OUTSIDE ===========

SurfaceConvectionAlgorithm:Outside,
    DOE-2;                   !- Algorithm


!-   ===========  ALL OBJECTS IN CLASS: HEATBALANCEALGORITHM ===========

HeatBalanceAlgorithm,
    ConductionTransferFunction,  !- Algorithm
    200.0000;                !- Surface Temperature Upper Limit {C}


!-   ===========  ALL OBJECTS IN CLASS: ZONEAIRHEATBALANCEALGORITHM ===========

ZoneAirHeatBalanceAlgorithm,
    AnalyticalSolution;      !- Algorithm


!-   ===========  ALL OBJECTS IN CLASS: TIMESTEP ===========

Timestep,
    6;                       !- Number of Timesteps per Hour


!-   ===========  ALL OBJECTS IN CLASS: CONVERGENCELIMITS ===========

ConvergenceLimits,
    2,                       !- Minimum System Timestep {minutes}
    25;                      !- Maximum HVAC Iterations


!-   ===========  ALL OBJECTS IN CLASS: SITE:LOCATION ===========

! WeatherFileName=USA_IL_Chicago-OHare_TMY2.epw
Site:Location,
    USA IL-CHICAGO-OHARE,    !- Name
    41.77,                   !- Latitude {deg}
    -87.75,                  !- Longitude {deg}
    -6.00,                   !- Time Zone {hr}
    190;                     !- Elevation {m}


!-   ===========  ALL OBJECTS IN CLASS: RUNPERIOD ===========

RunPeriod,
    RUNPERIOD 1,             !- Name
    1,                       !- Begin Month
    1,                       !- Begin Day of Month
    ,                        !- Begin Year
    12,                      !- End Month
    31,                      !- End Day of Month
    ,                        !- End Year
    Sunday,                  !- Day of Week for Start Day
    No,                      !- Use Weather File Holidays and Special Days
    No,                      !- Use Weather File Daylight Saving Period
    No,                      !- Apply Weekend Holiday Rule
    Yes,                     !- Use Weather File Rain Indicators
    Yes;                     !- Use Weather File Snow Indicators


!-   ===========  ALL OBJECTS IN CLASS: SCHEDULETYPELIMITS ===========

! ***SCHEDULE TYPES***
ScheduleTypeLimits,
    Any Number;              !- Name

ScheduleTypeLimits,
    Fraction,                !- Name
    0.0,                     !- Lower Limit Value
    1.0,                     !- Upper Limit Value
    CONTINUOUS;              !- Numeric Type

ScheduleTypeLimits,
    Temperature,             !- Name
    -60,                     !- Lower Limit Value
    200,                     !- Upper Limit Value
    CONTINUOUS;              !- Numeric Type

ScheduleTypeLimits,
    On/Off,                  !- Name
    0,                       !- Lower Limit Value
    1,                       !- Upper Limit Value
    DISCRETE;                !- Numeric Type

ScheduleTypeLimits,
    Control Type,            !- Name
    0,                       !- Lower Limit Value
    4,                       !- Upper Limit Value
    DISCRETE;                !- Numeric Type

ScheduleTypeLimits,
    Humidity,                !- Name
    10,                      !- Lower Limit Value
    90,                      !- Upper Limit Value
    CONTINUOUS;              !- Numeric Type

ScheduleTypeLimits,
    Number;                  !- Name


!-   ===========  ALL OBJECTS IN CLASS: SCHEDULE:COMPACT ===========

! ***ALWAYS ON SCHEDULE***
Schedule:Compact,
    ALWAYS_ON,               !- Name
    On/Off,                  !- Schedule Type Limits Name
    Through: 12/31,          !- Field 1
    For: AllDays,            !- Field 2
    Until: 24:00,            !- Field 3
    1;                       !- Field 4

! ***INTERNAL GAINS SCHEDULES***
Schedule:Compact,
    ACTIVITY_SCH,            !- Name
    Any Number,              !- Schedule Type Limits Name
    Through: 12/31,          !- Field 1
    For: AllDays,            !- Field 2
    Until: 24:00,            !- Field 3
    120.;                    !- Field 4

Schedule:Compact,
    AIR_VELO_SCH,            !- Name
    Any Number,              !- Schedule Type Limits Name
    Through: 12/31,          !- Field 1
    For: AllDays,            !- Field 2
    Until: 24:00,            !- Field 3
    0.2;                     !- Field 4

Schedule:Compact,
    BLDG_ELEVATORS,          !- Name
    Fraction,                !- Schedule Type Limits Name
    Through: 12/31,          !- Field 1
    For: Weekdays SummerDesignDay,  !- Field 2
    Until: 07:00,            !- Field 3
    0.0,                     !- Field 4
    Until: 08:00,            !- Field 5
    0.35,                    !- Field 6
    Until: 09:00,            !- Field 7
    0.69,                    !- Field 8
    Until: 10:00,            !- Field 9
    0.43,                    !- Field 10
    Until: 11:00,            !- Field 11
    0.37,                    !- Field 12
    Until: 12:00,            !- Field 13
    0.43,                    !- Field 14
    Until: 13:00,            !- Field 15
    0.58,                    !- Field 16
    Until: 14:00,            !- Field 17
    0.48,                    !- Field 18
    Until: 15:00,            !- Field 19
    0.37,                    !- Field 20
    Until: 16:00,            !- Field 21
    0.37,                    !- Field 22
    Until: 17:00,            !- Field 23
    0.46,                    !- Field 24
    Until: 18:00,            !- Field 25
    0.62,                    !- Field 26
    Until: 19:00,            !- Field 27
    0.12,                    !- Field 28
    Until: 20:00,            !- Field 29
    0.04,                    !- Field 30
    Until: 21:00,            !- Field 31
    0.04,                    !- Field 32
    Until: 24:00,            !- Field 33
    0.00,                    !- Field 34
    For: Saturday WinterDesignDay,  !- Field 35
    Until: 07:00,            !- Field 36
    0.0,                     !- Field 37
    Until: 08:00,            !- Field 38
    0.16,                    !- Field 39
    Until: 09:00,            !- Field 40
    0.14,                    !- Field 41
    Until: 10:00,            !- Field 42
    0.21,                    !- Field 43
    Until: 11:00,            !- Field 44
    0.18,                    !- Field 45
    Until: 12:00,            !- Field 46
    0.25,                    !- Field 47
    Until: 13:00,            !- Field 48
    0.21,                    !- Field 49
    Until: 14:00,            !- Field 50
    0.13,                    !- Field 51
    Until: 15:00,            !- Field 52
    0.08,                    !- Field 53
    Until: 16:00,            !- Field 54
    0.04,                    !- Field 55
    Until: 17:00,            !- Field 56
    0.05,                    !- Field 57
    Until: 18:00,            !- Field 58
    0.06,                    !- Field 59
    Until: 24:00,            !- Field 60
    0.00,                    !- Field 61
    For: Sunday Holidays AllOtherDays,  !- Field 62
    Until: 24:00,            !- Field 63
    0.0;                     !- Field 64

Schedule:Compact,
    BLDG_OCC_SCH,            !- Name
    Fraction,                !- Schedule Type Limits Name
    Through: 12/31,          !- Field 1
    For: SummerDesignDay,    !- Field 2
    Until: 06:00,            !- Field 3
    0.0,                     !- Field 4
    Until: 22:00,            !- Field 5
    1.0,                     !- Field 6
    Until: 24:00,            !- Field 7
    0.05,                    !- Field 8
    For: Weekdays,           !- Field 9
    Until: 06:00,            !- Field 10
    0.0,                     !- Field 11
    Until: 07:00,            !- Field 12
    0.1,                     !- Field 13
    Until: 08:00,            !- Field 14
    0.2,                     !- Field 15
    Until: 12:00,            !- Field 16
    0.95,                    !- Field 17
    Until: 13:00,            !- Field 18
    0.5,                     !- Field 19
    Until: 17:00,            !- Field 20
    0.95,                    !- Field 21
    Until: 18:00,            !- Field 22
    0.7,                     !- Field 23
    Until: 20:00,            !- Field 24
    0.4,                     !- Field 25
    Until: 22:00,            !- Field 26
    0.1,                     !- Field 27
    Until: 24:00,            !- Field 28
    0.05,                    !- Field 29
    For: Saturday,           !- Field 30
    Until: 06:00,            !- Field 31
    0.0,                     !- Field 32
    Until: 08:00,            !- Field 33
    0.1,                     !- Field 34
    Until: 14:00,            !- Field 35
    0.5,                     !- Field 36
    Until: 17:00,            !- Field 37
    0.1,                     !- Field 38
    Until: 24:00,            !- Field 39
    0.0,                     !- Field 40
    For: AllOtherDays,       !- Field 41
    Until: 24:00,            !- Field 42
    0.0;                     !- Field 43

Schedule:Compact,
    BLDG_LIGHT_SCH,          !- Name
    Fraction,                !- Schedule Type Limits Name
    Through: 12/31,          !- Field 1
    For: Weekdays,           !- Field 2
    Until: 05:00,            !- Field 3
    0.05,                    !- Field 4
    Until: 07:00,            !- Field 5
    0.1,                     !- Field 6
    Until: 08:00,            !- Field 7
    0.3,                     !- Field 8
    Until: 17:00,            !- Field 9
    0.9,                     !- Field 10
    Until: 18:00,            !- Field 11
    0.7,                     !- Field 12
    Until: 20:00,            !- Field 13
    0.5,                     !- Field 14
    Until: 22:00,            !- Field 15
    0.3,                     !- Field 16
    Until: 23:00,            !- Field 17
    0.1,                     !- Field 18
    Until: 24:00,            !- Field 19
    0.05,                    !- Field 20
    For: Saturday,           !- Field 21
    Until: 06:00,            !- Field 22
    0.05,                    !- Field 23
    Until: 08:00,            !- Field 24
    0.1,                     !- Field 25
    Until: 14:00,            !- Field 26
    0.5,                     !- Field 27
    Until: 17:00,            !- Field 28
    0.15,                    !- Field 29
    Until: 24:00,            !- Field 30
    0.05,                    !- Field 31
    For: SummerDesignDay,    !- Field 32
    Until: 24:00,            !- Field 33
    1.0,                     !- Field 34
    For: WinterDesignDay,    !- Field 35
    Until: 24:00,            !- Field 36
    0.0,                     !- Field 37
    For: AllOtherDays,       !- Field 38
    Until: 24:00,            !- Field 39
    0.05;                    !- Field 40

Schedule:Compact,
    BLDG_EQUIP_SCH,          !- Name
    Fraction,                !- Schedule Type Limits Name
    Through: 12/31,          !- Field 1
    For: Weekdays,           !- Field 2
    Until: 08:00,            !- Field 3
    0.40,                    !- Field 4
    Until: 12:00,            !- Field 5
    0.90,                    !- Field 6
    Until: 13:00,            !- Field 7
    0.80,                    !- Field 8
    Until: 17:00,            !- Field 9
    0.90,                    !- Field 10
    Until: 18:00,            !- Field 11
    0.80,                    !- Field 12
    Until: 20:00,            !- Field 13
    0.60,                    !- Field 14
    Until: 22:00,            !- Field 15
    0.50,                    !- Field 16
    Until: 24:00,            !- Field 17
    0.40,                    !- Field 18
    For: Saturday,           !- Field 19
    Until: 06:00,            !- Field 20
    0.30,                    !- Field 21
    Until: 08:00,            !- Field 22
    0.4,                     !- Field 23
    Until: 14:00,            !- Field 24
    0.5,                     !- Field 25
    Until: 17:00,            !- Field 26
    0.35,                    !- Field 27
    Until: 24:00,            !- Field 28
    0.30,                    !- Field 29
    For: SummerDesignDay,    !- Field 30
    Until: 24:00,            !- Field 31
    1.0,                     !- Field 32
    For: WinterDesignDay,    !- Field 33
    Until: 24:00,            !- Field 34
    0.0,                     !- Field 35
    For: AllOtherDays,       !- Field 36
    Until: 24:00,            !- Field 37
    0.30;                    !- Field 38

Schedule:Compact,
    CLOTHING_SCH,            !- Name
    Any Number,              !- Schedule Type Limits Name
    Through: 04/30,          !- Field 1
    For: AllDays,            !- Field 2
    Until: 24:00,            !- Field 3
    1.0,                     !- Field 4
    Through: 09/30,          !- Field 5
    For: AllDays,            !- Field 6
    Until: 24:00,            !- Field 7
    0.5,                     !- Field 8
    Through: 12/31,          !- Field 9
    For: AllDays,            !- Field 10
    Until: 24:00,            !- Field 11
    1.0;                     !- Field 12

Schedule:Compact,
    INFIL_QUARTER_ON_SCH,    !- Name
    Fraction,                !- Schedule Type Limits Name
    Through: 12/31,          !- Field 1
    For: Weekdays SummerDesignDay,  !- Field 2
    Until: 06:00,            !- Field 3
    1.0,                     !- Field 4
    Until: 22:00,            !- Field 5
    0.25,                    !- Field 6
    Until: 24:00,            !- Field 7
    1.0,                     !- Field 8
    For: Saturday WinterDesignDay,  !- Field 9
    Until: 06:00,            !- Field 10
    1.0,                     !- Field 11
    Until: 18:00,            !- Field 12
    0.25,                    !- Field 13
    Until: 24:00,            !- Field 14
    1.0,                     !- Field 15
    For: Sunday Holidays AllOtherDays,  !- Field 16
    Until: 24:00,            !- Field 17
    1.0;                     !- Field 18

Schedule:Compact,
    WORK_EFF_SCH,            !- Name
    Fraction,                !- Schedule Type Limits Name
    Through: 12/31,          !- Field 1
    For: AllDays,            !- Field 2
    Until: 24:00,            !- Field 3
    0.0;                     !- Field 4

! ***SCHEDULES***
Schedule:Compact,
    Dual Zone Control Type Sched,  !- Name
    Control Type,            !- Schedule Type Limits Name
    Through: 12/31,          !- Field 1
    For: AllDays,            !- Field 2
    Until: 24:00,            !- Field 3
    4;                       !- Field 4

Schedule:Compact,
    CLGSETP_SCH,             !- Name
    Temperature,             !- Schedule Type Limits Name
    Through: 12/31,          !- Field 1
    For: Weekdays SummerDesignDay,  !- Field 2
    Until: 06:00,            !- Field 3
    26.7,                    !- Field 4
    Until: 22:00,            !- Field 5
    24.0,                    !- Field 6
    Until: 24:00,            !- Field 7
    26.7,                    !- Field 8
    For: Saturday,           !- Field 9
    Until: 06:00,            !- Field 10
    26.7,                    !- Field 11
    Until: 18:00,            !- Field 12
    24.0,                    !- Field 13
    Until: 24:00,            !- Field 14
    26.7,                    !- Field 15
    For WinterDesignDay,     !- Field 16
    Until: 24:00,            !- Field 17
    26.7,                    !- Field 18
    For: AllOtherDays,       !- Field 19
    Until: 24:00,            !- Field 20
    26.7;                    !- Field 21

Schedule:Compact,
    HTGSETP_SCH,             !- Name
    Temperature,             !- Schedule Type Limits Name
    Through: 12/31,          !- Field 1
    For: Weekdays,           !- Field 2
    Until: 06:00,            !- Field 3
    15.6,                    !- Field 4
    Until: 22:00,            !- Field 5
    21.0,                    !- Field 6
    Until: 24:00,            !- Field 7
    15.6,                    !- Field 8
    For SummerDesignDay,     !- Field 9
    Until: 24:00,            !- Field 10
    15.6,                    !- Field 11
    For: Saturday,           !- Field 12
    Until: 06:00,            !- Field 13
    15.6,                    !- Field 14
    Until: 18:00,            !- Field 15
    21.0,                    !- Field 16
    Until: 24:00,            !- Field 17
    15.6,                    !- Field 18
    For: WinterDesignDay,    !- Field 19
    Until: 24:00,            !- Field 20
    21.0,                    !- Field 21
    For: AllOtherDays,       !- Field 22
    Until: 24:00,            !- Field 23
    15.6;                    !- Field 24

Schedule:Compact,
    HVACOperationSchd,       !- Name
    On/Off,                  !- Schedule Type Limits Name
    Through: 12/31,          !- Field 1
    For: Weekdays SummerDesignDay,  !- Field 2
    Until: 06:00,            !- Field 3
    0.0,                     !- Field 4
    Until: 22:00,            !- Field 5
    1.0,                     !- Field 6
    Until: 24:00,            !- Field 7
    0.0,                     !- Field 8
    For: Saturday WinterDesignDay,  !- Field 9
    Until: 06:00,            !- Field 10
    0.0,                     !- Field 11
    Until: 18:00,            !- Field 12
    1.0,                     !- Field 13
    Until: 24:00,            !- Field 14
    0.0,                     !- Field 15
    For: AllOtherDays,       !- Field 16
    Until: 24:00,            !- Field 17
    0.0;                     !- Field 18

Schedule:Compact,
    MinOA_MotorizedDamper_Sched,  !- Name
    Fraction,                !- Schedule Type Limits Name
    Through: 12/31,          !- Field 1
    For: Weekdays SummerDesignDay,  !- Field 2
    Until: 07:00,            !- Field 3
    0.0,                     !- Field 4
    Until: 22:00,            !- Field 5
    1.0,                     !- Field 6
    Until: 24:00,            !- Field 7
    0.0,                     !- Field 8
    For: Saturday WinterDesignDay,  !- Field 9
    Until: 07:00,            !- Field 10
    0.0,                     !- Field 11
    Until: 18:00,            !- Field 12
    1.0,                     !- Field 13
    Until: 24:00,            !- Field 14
    0.0,                     !- Field 15
    For: AllOtherDays,       !- Field 16
    Until: 24:00,            !- Field 17
    0.0;                     !- Field 18

Schedule:Compact,
    Seasonal-Reset-Supply-Air-Temp-Sch,  !- Name
    Temperature,             !- Schedule Type Limits Name
    Through: 12/31,          !- Field 1
    For: AllDays,            !- Field 2
    Until: 24:00,            !- Field 3
    12.8;                    !- Field 4

! ***SWH SCHEDULES***
Schedule:Compact,
    BLDG_SWH_SCH,            !- Name
    Fraction,                !- Schedule Type Limits Name
    Through: 12/31,          !- Field 1
    For: Weekdays SummerDesignDay,  !- Field 2
    Until: 05:00,            !- Field 3
    0.05,                    !- Field 4
    Until: 06:00,            !- Field 5
    0.08,                    !- Field 6
    Until: 07:00,            !- Field 7
    0.07,                    !- Field 8
    Until: 08:00,            !- Field 9
    0.19,                    !- Field 10
    Until: 09:00,            !- Field 11
    0.35,                    !- Field 12
    Until: 10:00,            !- Field 13
    0.38,                    !- Field 14
    Until: 11:00,            !- Field 15
    0.39,                    !- Field 16
    Until: 12:00,            !- Field 17
    0.47,                    !- Field 18
    Until: 13:00,            !- Field 19
    0.57,                    !- Field 20
    Until: 14:00,            !- Field 21
    0.54,                    !- Field 22
    Until: 15:00,            !- Field 23
    0.34,                    !- Field 24
    Until: 16:00,            !- Field 25
    0.33,                    !- Field 26
    Until: 17:00,            !- Field 27
    0.44,                    !- Field 28
    Until: 18:00,            !- Field 29
    0.26,                    !- Field 30
    Until: 19:00,            !- Field 31
    0.21,                    !- Field 32
    Until: 20:00,            !- Field 33
    0.15,                    !- Field 34
    Until: 21:00,            !- Field 35
    0.17,                    !- Field 36
    Until: 22:00,            !- Field 37
    0.08,                    !- Field 38
    Until: 24:00,            !- Field 39
    0.05,                    !- Field 40
    For: Saturday WinterDesignDay,  !- Field 41
    Until: 05:00,            !- Field 42
    0.05,                    !- Field 43
    Until: 06:00,            !- Field 44
    0.08,                    !- Field 45
    Until: 07:00,            !- Field 46
    0.07,                    !- Field 47
    Until: 08:00,            !- Field 48
    0.11,                    !- Field 49
    Until: 09:00,            !- Field 50
    0.15,                    !- Field 51
    Until: 10:00,            !- Field 52
    0.21,                    !- Field 53
    Until: 11:00,            !- Field 54
    0.19,                    !- Field 55
    Until: 12:00,            !- Field 56
    0.23,                    !- Field 57
    Until: 13:00,            !- Field 58
    0.20,                    !- Field 59
    Until: 14:00,            !- Field 60
    0.19,                    !- Field 61
    Until: 15:00,            !- Field 62
    0.15,                    !- Field 63
    Until: 16:00,            !- Field 64
    0.13,                    !- Field 65
    Until: 17:00,            !- Field 66
    0.14,                    !- Field 67
    Until: 21:00,            !- Field 68
    0.07,                    !- Field 69
    Until: 22:00,            !- Field 70
    0.09,                    !- Field 71
    Until: 24:00,            !- Field 72
    0.05,                    !- Field 73
    For: Sunday Holidays AllOtherDays,  !- Field 74
    Until: 05:00,            !- Field 75
    0.04,                    !- Field 76
    Until: 06:00,            !- Field 77
    0.07,                    !- Field 78
    Until: 11:00,            !- Field 79
    0.04,                    !- Field 80
    Until: 13:00,            !- Field 81
    0.06,                    !- Field 82
    Until: 14:00,            !- Field 83
    0.09,                    !- Field 84
    Until: 15:00,            !- Field 85
    0.06,                    !- Field 86
    Until: 21:00,            !- Field 87
    0.04,                    !- Field 88
    Until: 22:00,            !- Field 89
    0.07,                    !- Field 90
    Until: 24:00,            !- Field 91
    0.04;                    !- Field 92

Schedule:Compact,
    Water Equipment Latent fract sched,  !- Name
    Fraction,                !- Schedule Type Limits Name
    Through: 12/31,          !- Field 1
    For: AllDays,            !- Field 2
    Until: 24:00,            !- Field 3
    0.05;                    !- Field 4

Schedule:Compact,
    Water Equipment Sensible fract sched,  !- Name
    Fraction,                !- Schedule Type Limits Name
    Through: 12/31,          !- Field 1
    For: AllDays,            !- Field 2
    Until: 24:00,            !- Field 3
    0.2;                     !- Field 4

Schedule:Compact,
    Water Equipment Hot Supply Temp Sched,  !- Name
    Temperature,             !- Schedule Type Limits Name
    Through: 12/31,          !- Field 1
    For: AllDays,            !- Field 2
    Until: 24:00,            !- Field 3
    43.3;                    !- Field 4

Schedule:Compact,
    Water Equipment Temp Sched,  !- Name
    Temperature,             !- Schedule Type Limits Name
    Through: 12/31,          !- Field 1
    For: AllDays,            !- Field 2
    Until: 24:00,            !- Field 3
    43.3;                    !- Field 4

Schedule:Compact,
    SWHSys1 Water Heater Ambient Temperature Schedule Name,  !- Name
    Temperature,             !- Schedule Type Limits Name
    Through: 12/31,          !- Field 1
    For: AllDays,            !- Field 2
    Until: 24:00,            !- Field 3
    22.0;                    !- Field 4

Schedule:Compact,
    SWHSys1 Water Heater Setpoint Temperature Schedule Name,  !- Name
    Temperature,             !- Schedule Type Limits Name
    Through: 12/31,          !- Field 1
    For: AllDays,            !- Field 2
    Until: 24:00,            !- Field 3
    60.0;                    !- Field 4

Schedule:Compact,
    SWHSys1-Loop-Temp-Schedule,  !- Name
    Temperature,             !- Schedule Type Limits Name
    Through: 12/31,          !- Field 1
    For: AllDays,            !- Field 2
    Until: 24:00,            !- Field 3
    60.0;                    !- Field 4


!-   ===========  ALL OBJECTS IN CLASS: MATERIAL ===========

Material,
    Steel Frame NonRes Wall Insulation,  !- Name
    MediumRough,             !- Roughness
    0.0870564552646045,      !- Thickness {m}